/*--------------------------------*- C++ -*----------------------------------*\
  =========                 |
  \\      /  F ield         | OpenFOAM: The Open Source CFD Toolbox
   \\    /   O peration     | Website:  https://openfoam.org
    \\  /    A nd           | Version:  6
     \\/     M anipulation  |
\*---------------------------------------------------------------------------*/
FoamFile
{
    version     2.0;
    format      ascii;
    class       dictionary;
    object      createPatchDict;
}
// * * * * * * * * * * * * * * * * * * * * * * * * * * * * * * * * * * * * * //

pointSync   false;

patches
(
    {
        name    inlet;
        patchInfo
        {
            type    patch;
        }
        constructFrom set;
        set     inletFaces;
    }
    
    {
        name    oxidizer;
        patchInfo
        {
            type    patch;
        }
        constructFrom set;
        set     oxidizerFaces;
    }
);

// ************************************************************************* //
