/*--------------------------------*- C++ -*----------------------------------*\
| =========                 |                                                 |
| \\      /  F ield         | OpenFOAM: The Open Source CFD Toolbox           |
|  \\    /   O peration     | Version:  v1906                                 |
|   \\  /    A nd           | Web:      www.OpenFOAM.com                      |
|    \\/     M anipulation  |                                                 |
\*---------------------------------------------------------------------------*/
FoamFile
{
    version     2.0;
    format      ascii;
    class       dictionary;
    object      setFieldsDict;
}
// * * * * * * * * * * * * * * * * * * * * * * * * * * * * * * * * * * * * * //

defaultFieldValues
(
//    volScalarFieldValue T 1500
);

regions
(
    // Set cell values
    // (does zerogradient on boundaries)
    boxToCell
    {
        box (-0.130 3.5 -1) (0.130 3.9 1);

        fieldValues
        (
            volScalarFieldValue T 1800
        );
    }
);

// ************************************************************************* //
