/*--------------------------------*- C++ -*----------------------------------*\
| =========                 |                                                 |
| \\      /  F ield         | OpenFOAM: The Open Source CFD Toolbox           |
|  \\    /   O peration     | Version:  v2212                                 |
|   \\  /    A nd           | Website:  www.openfoam.com                      |
|    \\/     M anipulation  |                                                 |
\*---------------------------------------------------------------------------*/
FoamFile
{
    version     2.0;
    format      ascii;
    class       dictionary;
    object      fvSchemes;
}
// * * * * * * * * * * * * * * * * * * * * * * * * * * * * * * * * * * * * * //

ddtSchemes
{
    default         Euler;
}

gradSchemes
{
    default         Gauss linear;
}

divSchemes
{
    default         none;

//    First Order
    div(phi,U)      Gauss upwind;
    div(phid,p)     Gauss upwind;
    div(phi,K)      Gauss linear;
    div(phi,h)      Gauss upwind;
    div(phi,k)      Gauss upwind;
    div(phi,epsilon) Gauss upwind;
    div(U)          Gauss linear;
    div(phi,Yi_h)   Gauss upwind;

////    Second order
//    div(phi,U)      Gauss limitedLinearV 1;
//    div(phid,p)     Gauss limitedLinear 1;
//    div(phi,K)      Gauss limitedLinear 1;
//    div(phi,h)      Gauss limitedLinear 1;
//    div(phi,k)      Gauss limitedLinear 1;
//    div(phi,epsilon) Gauss limitedLinear 1;
//    div(U)          Gauss limitedLinear 1;
//    div(phi,Yi_h)   Gauss limitedLinear01 1;

    div(((rho*nuEff)*dev2(T(grad(U))))) Gauss linear;
}

laplacianSchemes
{
    default         Gauss linear orthogonal;
}

interpolationSchemes
{
    default         linear;
}

snGradSchemes
{
    default         orthogonal;
}


// ************************************************************************* //
