/*--------------------------------*- C++ -*----------------------------------*\
| =========                 |                                                 |
| \\      /  F ield         | OpenFOAM: The Open Source CFD Toolbox           |
|  \\    /   O peration     | Version:  v2212                                 |
|   \\  /    A nd           | Website:  www.openfoam.com                      |
|    \\/     M anipulation  |                                                 |
\*---------------------------------------------------------------------------*/
FoamFile
{
    version     2.0;
    format      ascii;
    class       dictionary;
    object      combustionProperties;
}
// * * * * * * * * * * * * * * * * * * * * * * * * * * * * * * * * * * * * * //

combustionModel EDC;// PaSR;

active  true;

EDCCoeffs
{
    version v2005;
    //Cgamma      2.1377;
    //Ctau        0.4083;
    //exp1        2.0;
    //exp2        2.0;
}


PaSRCoeffs
{
    Cmix                1.0;
}


// ************************************************************************* //
