/*--------------------------------*- C++ -*----------------------------------*\
  =========                 |
  \\      /  F ield         | OpenFOAM: The Open Source CFD Toolbox
   \\    /   O peration     | Website:  https://openfoam.org
    \\  /    A nd           | Version:  6
     \\/     M anipulation  |
\*---------------------------------------------------------------------------*/
FoamFile
{
    version     2.0;
    format      ascii;
    class       volScalarField;
    location    "0";
    object      CH4;
}
// * * * * * * * * * * * * * * * * * * * * * * * * * * * * * * * * * * * * * //

dimensions      [0 0 0 0 0 0 0];

internalField   uniform 0.0;

boundaryField
{
    outlet
    {
		type            inletOutlet;
        value           uniform 0;
        inletValue      uniform 0;
    }
    walls
    {
		type            zeroGradient;
    }
    inlet
    {
		type            fixedValue;
        value           uniform 0;
    }
    oxidizer
    {
		type            fixedValue;
        value           uniform 0;
    }
    frontAndBack
    {
		type			empty;
    }
    symmetry
    {
		type			symmetryPlane;
	}
}


// ************************************************************************* //
