/*--------------------------------*- C++ -*----------------------------------*\
  =========                 |
  \\      /  F ield         | OpenFOAM: The Open Source CFD Toolbox
   \\    /   O peration     | Website:  https://openfoam.org
    \\  /    A nd           | Version:  6
     \\/     M anipulation  |
\*---------------------------------------------------------------------------*/
FoamFile
{
    version     2.0;
    format      ascii;
    class       volScalarField;
    location    "0";
    object      p;
}
// * * * * * * * * * * * * * * * * * * * * * * * * * * * * * * * * * * * * * //

dimensions      [1 -1 -2 0 0 0 0];

internalField   uniform 101325;

boundaryField
{
    outlet
    {
		/*type            totalPressure;
        rho             rho;
        psi             none;
        gamma           1;
        p0              uniform 101325;
        value           uniform 101325;*/
        
        type            waveTransmissive;
		psi				thermo:psi;
        gamma           1.4;
		fiekd			p;
        fieldInf        101325;
        lInf            5;
        value           uniform 101325;
    }
    walls
    {
		type            zeroGradient;
    }
    inlet
    {
		type            zeroGradient;
    }
    oxidizer
    {
		type            zeroGradient;
    }
    frontAndBack
    {
		type			empty;
    }
    symmetry
    {
		type			symmetryPlane;
	}
}


// ************************************************************************* //
