/*--------------------------------*- C++ -*----------------------------------*\
  =========                 |
  \\      /  F ield         | OpenFOAM: The Open Source CFD Toolbox
   \\    /   O peration     | Website:  https://openfoam.org
    \\  /    A nd           | Version:  6
     \\/     M anipulation  |
\*---------------------------------------------------------------------------*/
FoamFile
{
    version     2.0;
    format      ascii;
    class       volVectorField;
    location    "0";
    object      U;
}
// * * * * * * * * * * * * * * * * * * * * * * * * * * * * * * * * * * * * * //

dimensions      [0 1 -1 0 0 0 0];

internalField   uniform (0 0 0);

boundaryField
{
	outlet
    {
		type			pressureInletOutletVelocity;
		value			uniform (0 0 0);
    }
    
    walls
    {
		//type            noSlip;
		type		fixedValue;
		value			uniform (0 0 0);
		//type		slip;
    }
    
    inlet
    {
		
		type                flowRateInletVelocity;
		//volumetricFlowRate  0.016933333333333; //0.016933;
		massFlowRate  		constant 0.011136062059697;  
		rhoInlet			1;
		//extrapolateProfile  yes;
		value				uniform (0 -20.550477 0);
		
		/*type			fixedValue;
		value           uniform (0 -23.1074 0);*/
    }
    
    oxidizer
    {
		type                flowRateInletVelocity;
		//volumetricFlowRate  0.00228333333333333; //0.016933;
		massFlowRate  		constant 0.001670372736214;   
		rhoInlet			1;
		//extrapolateProfile  yes;		
		value				uniform (0 -30 0);
    }
    
    frontAndBack
    {
		type			empty;
    }
    symmetry
    {
		type			symmetryPlane;
	}
}


// ************************************************************************* //
