/*--------------------------------*- C++ -*----------------------------------*\
| =========                 |                                                 |
| \\      /  F ield         | OpenFOAM: The Open Source CFD Toolbox           |
|  \\    /   O peration     | Version:  v2212                                 |
|   \\  /    A nd           | Website:  www.openfoam.com                      |
|    \\/     M anipulation  |                                                 |
\*---------------------------------------------------------------------------*/
FoamFile
{
    version     2.0;
    format      ascii;
    class       dictionary;
    object      coalCloud1Properties;
}
// * * * * * * * * * * * * * * * * * * * * * * * * * * * * * * * * * * * * * //

solution
{
    active          true;
    transient       yes;
    coupled         true;
    cellValueSourceCorrection on;
    maxCo           0.3;

    sourceTerms
    {
        schemes
        {
            rho             semiImplicit 1;
            U               semiImplicit 1;
            Yi              semiImplicit 1;
            h               semiImplicit 1;
            radiation       semiImplicit 1;
        }
    }

    interpolationSchemes
    {
        rho             cell;
        U               cellPoint;
        thermo:mu       cell;
        T               cell;
        Cp              cell;
        kappa           cell;
        p               cell;
        G               cell;
    }

    integrationSchemes
    {
        U               Euler;
        T               analytical;
    }
}

constantProperties
{
    rho0            1000;
    T0              300;
    Cp0             4187;
    epsilon0        1;
    f0              0.5;

    TDevol          400;
    LDevol          0;
    hRetentionCoeff 1;

    constantVolume  true;
}

subModels
{
    particleForces
    {
        sphereDrag;
        gravity;
    }

    injectionModels
    {
        model1 // Adapted from aachenBomb
        {
            type            coneNozzleInjection;
            SOI             0;
            massTotal       6.0e-5;
            parcelBasisType mass;
            injectionMethod disc;
            flowType        flowRateAndDischarge;
            outerDiameter   1.9e-4;
            innerDiameter   0;
            duration        10;
            position        (0 0 -1e-3);
            direction       (0 0 -1);
            parcelsPerSecond 2000;
            flowRateProfile table
            (
                (0              1)
                (10           1)
            );

            Cd              constant 0.9;

            thetaInner      constant 0.0;
            thetaOuter      constant 10.0;

            sizeDistribution
            {
                type        RosinRammler;

                RosinRammlerDistribution
                {
                    minValue        1e-06;
                    maxValue        1e-3;
                    lambda          0.00015;
                    n               3;
                }
            }
        }
    }

    dispersionModel stochasticDispersionRAS;

    patchInteractionModel standardWallInteraction;

    heatTransferModel RanzMarshall;

    compositionModel singleMixtureFraction;

    phaseChangeModel liquidEvaporation;

    devolatilisationModel constantRateDevolatilisation;

    stochasticCollisionModel none;

    //surfaceReactionModel COxidationKineticDiffusionLimitedRate;
    surfaceReactionModel Pyrolysis;

    surfaceFilmModel none;

    radiation       on;

    standardWallInteractionCoeffs
    {
        type            rebound;
        e               1;
        mu              0;
    }

    RanzMarshallCoeffs
    {
        BirdCorrection  true;
    }

    singleMixtureFractionCoeffs
    {
        phases
        (
            gas
            {
                CH4             0.604;
                H2              0.099;
                CO2             0.297;
            }
            liquid
            {
                H2O             1;
            }
            solid
            {
                ash             0.136304;
                C               0.863696;
            }
        );
        YGasTot0        0.211;
        YLiquidTot0     0.026;
        YSolidTot0      0.763;
    }

    liquidEvaporationCoeffs
    {
        enthalpyTransfer enthalpyDifference;

        activeLiquids
        (
            H2O
        );
    }

    constantRateDevolatilisationCoeffs
    {
        volatileData
        (
            (CH4            12)
            (H2             12)
            (CO2            12)
        );
        residualCoeff   0.001;
    }

    COxidationKineticDiffusionLimitedRateCoeffs
    {
        Sb              1;
        C1              5.0E-12;
        C2              0.002;
        E               7.9E+07;
    }
    PyrolysisCoeffs // AC
    {
        Sb              1;
        C1              5.0E-12;
        C2              0.002;
        E               7.9E+07;
        waterToAsh      1;
    }
}


cloudFunctions
{}


// ************************************************************************* //
