/*--------------------------------*- C++ -*----------------------------------*\
| =========                 |                                                 |
| \\      /  F ield         | OpenFOAM: The Open Source CFD Toolbox           |
|  \\    /   O peration     | Version:  v2212                                 |
|   \\  /    A nd           | Website:  www.openfoam.com                      |
|    \\/     M anipulation  |                                                 |
\*---------------------------------------------------------------------------*/

FoamFile
{
    version     2.0;
    format      ascii;
    class       vectorField;
    object      coalCloud1Positions;
}
// * * * * * * * * * * * * * * * * * * * * * * * * * * * * * * * * * * * * * //

(
( 0 0 -1e-2)
( 0 0 -2e-2)
( 0 0 -3e-2)
( 0 0 -4e-2)
( 0 0 -5e-2)
( 0 0 -6e-2)
( 1e-2 0 -1e-2)
( 1e-2 0 -2e-2)
( 1e-2 0 -3e-2)
( 1e-2 0 -4e-2)
( 1e-2 0 -5e-2)
( 1e-2 0 -6e-2)
( 0 1e-2 -1e-2)
( 0 1e-2 -2e-2)
( 0 1e-2 -3e-2)
( 0 1e-2 -4e-2)
( 0 1e-2 -5e-2)
( 0 1e-2 -6e-2)
( -1e-2 0 -1e-2)
( -1e-2 0 -2e-2)
( -1e-2 0 -3e-2)
( -1e-2 0 -4e-2)
( -1e-2 0 -5e-2)
( -1e-2 0 -6e-2)
( 0 -1e-2 -1e-2)
( 0 -1e-2 -2e-2)
( 0 -1e-2 -3e-2)
( 0 -1e-2 -4e-2)
( 0 -1e-2 -5e-2)
( 0 -1e-2 -6e-2)
)


// ************************************************************************* //
