/*--------------------------------*- C++ -*----------------------------------*\
  =========                 |
  \\      /  F ield         | OpenFOAM: The Open Source CFD Toolbox
   \\    /   O peration     | Website:  https://openfoam.org
    \\  /    A nd           | Version:  6
     \\/     M anipulation  |
\*---------------------------------------------------------------------------*/
FoamFile
{
    version     2.0;
    format      ascii;
    class       dictionary;
    location    "constant";
    object      fvOptions;
}
// * * * * * * * * * * * * * * * * * * * * * * * * * * * * * * * * * * * * * //


source1
{
    type            fixedTemperatureConstraint;

    timeStart       0.05;
    duration        0.2;
    selectionMode   cellSet;
    cellSet         ignitionCells;

    mode            uniform;
    temperature     1300;
}


/*source2
{
    type            fixedTemperatureConstraint;

    timeStart       0.451;
    duration        0.1;
    selectionMode   cellSet;
    cellSet         ignitionCells;

    mode            uniform;
    temperature     1000;
}*/


// ************************************************************************* //
